/*--------------------------------*- C++ -*----------------------------------*\
  =========                 |
  \\      /  F ield         | OpenFOAM: The Open Source CFD Toolbox
   \\    /   O peration     | Website:  https://openfoam.org
    \\  /    A nd           | Version:  7
     \\/     M anipulation  |
\*---------------------------------------------------------------------------*/
FoamFile
{
    version     2.0;
    format      ascii;
    class       dictionary;
    object      controlDict;
}
// * * * * * * * * * * * * * * * * * * * * * * * * * * * * * * * * * * * * * //
libs            ("libturbulentInflow.so");
application     pisoFoam;

startFrom       startTime;

startTime       0;

stopAt          endTime;

endTime         20.0;

deltaT          1e-4;

writeControl    timeStep;

writeInterval   10000;

purgeWrite      0;

writeFormat     binary;

writePrecision  6;

writeCompression off;

timeFormat      general;

timePrecision   6;

runTimeModifiable true;

functions
{
    // #include "cuttingPlane"
    // #include "streamLines"
    // #include "forceCoeffs"
    probes
    {
        type            probes;
        libs            ("libsampling.so");
        writeControl    timeStep;
        writeInterval   20;

        fields
        (
            p
            U
        );

        probeLocations
        (
// probes at inlet to check simulation of turbulent inflow
(0.0 3.147759 0.1)
(0.0 3.147759 0.2)
(0.0 3.147759 0.3)
(0.0 3.147759 0.4)
(0.0 3.147759 0.5)
(0.0 3.147759 0.6)
(0.0 3.147759 0.7)
(0.0 3.147759 0.71)
(0.0 3.147759 0.72)
(0.0 3.147759 0.738)

(0.1 3.147759 0.1)
(0.1 3.147759 0.2)
(0.1 3.147759 0.3)
(0.1 3.147759 0.4)
(0.1 3.147759 0.5)
(0.1 3.147759 0.6)
(0.1 3.147759 0.7)
(0.1 3.147759 0.71)
(0.1 3.147759 0.72)
(0.1 3.147759 0.738)

// probles incident to array
(0.6 3.147759 0.1)
(0.6 3.147759 0.2)
(0.6 3.147759 0.3)
(0.6 3.147759 0.4)
(0.6 3.147759 0.5)
(0.6 3.147759 0.6)
(0.6 3.147759 0.7)
(0.6 3.147759 0.71)
(0.6 3.147759 0.72)
(0.6 3.147759 0.738)

// probes at inlet to check simulation of turbulent inflow
(0.0 2.7 0.1)
(0.0 2.7 0.2)
(0.0 2.7 0.3)
(0.0 2.7 0.4)
(0.0 2.7 0.5)
(0.0 2.7 0.6)
(0.0 2.7 0.7)
(0.0 2.7 0.71)
(0.0 2.7 0.72)
(0.0 2.7 0.738)

(0.1 2.7 0.1)
(0.1 2.7 0.2)
(0.1 2.7 0.3)
(0.1 2.7 0.4)
(0.1 2.7 0.5)
(0.1 2.7 0.6)
(0.1 2.7 0.7)
(0.1 2.7 0.71)
(0.1 2.7 0.72)
(0.1 2.7 0.738)

// probles incident to array
(0.6 2.7 0.1)
(0.6 2.7 0.2)
(0.6 2.7 0.3)
(0.6 2.7 0.4)
(0.6 2.7 0.5)
(0.6 2.7 0.6)
(0.6 2.7 0.7)
(0.6 2.7 0.71)
(0.6 2.7 0.72)
(0.6 2.7 0.738)

// row 1 pressure taps on the top of the panel
(0.6293674996233297 3.9394467083333331 0.0603681458333333)
(0.6603924988699890 3.9394467083333331 0.0782804375000000)
(0.6914174981166482 3.9394467083333331 0.0961927291666667)
(0.7224424973633075 3.9394467083333331 0.1141050208333333)
(0.6293674996233297 3.8677975416666666 0.0603681458333333)
(0.6603924988699890 3.8677975416666666 0.0782804375000000)
(0.6914174981166482 3.8677975416666666 0.0961927291666667)
(0.7224424973633075 3.8677975416666666 0.1141050208333333)
(0.6293674996233297 3.7603237916666665 0.0603681458333333)
(0.6603924988699890 3.7603237916666665 0.0782804375000000)
(0.6914174981166482 3.7603237916666665 0.0961927291666667)
(0.7224424973633075 3.7603237916666665 0.1141050208333333)
(0.6293674996233297 3.6170254583333330 0.0603681458333333)
(0.6603924988699890 3.6170254583333330 0.0782804375000000)
(0.6914174981166482 3.6170254583333330 0.0961927291666667)
(0.7224424973633075 3.6170254583333330 0.1141050208333333)
(0.6293674996233297 3.4379025416666664 0.0603681458333333)
(0.6603924988699890 3.4379025416666664 0.0782804375000000)
(0.6914174981166482 3.4379025416666664 0.0961927291666667)
(0.7224424973633075 3.4379025416666664 0.1141050208333333)
(0.6293674996233297 3.2946042083333333 0.0603681458333333)
(0.6603924988699890 3.2946042083333333 0.0782804375000000)
(0.6914174981166482 3.2946042083333333 0.0961927291666667)
(0.7224424973633075 3.2946042083333333 0.1141050208333333)
(0.6293674996233297 3.1871304583333333 0.0603681458333333)
(0.6603924988699890 3.1871304583333333 0.0782804375000000)
(0.6914174981166482 3.1871304583333333 0.0961927291666667)
(0.7224424973633075 3.1871304583333333 0.1141050208333333)
// row 1 pressure taps on the bottom of the panel
(0.6308174996233297 3.9394467083333331 0.0578551458333333)
(0.6618424988699889 3.9394467083333331 0.0757674375000000)
(0.6928674981166482 3.9394467083333331 0.0936797291666667)
(0.7238924973633074 3.9394467083333331 0.1115920208333333)
(0.6308174996233297 3.8677975416666666 0.0578551458333333)
(0.6618424988699889 3.8677975416666666 0.0757674375000000)
(0.6928674981166482 3.8677975416666666 0.0936797291666667)
(0.7238924973633074 3.8677975416666666 0.1115920208333333)
(0.6308174996233297 3.7603237916666665 0.0578551458333333)
(0.6618424988699889 3.7603237916666665 0.0757674375000000)
(0.6928674981166482 3.7603237916666665 0.0936797291666667)
(0.7238924973633074 3.7603237916666665 0.1115920208333333)
(0.6308174996233297 3.6170254583333330 0.0578551458333333)
(0.6618424988699889 3.6170254583333330 0.0757674375000000)
(0.6928674981166482 3.6170254583333330 0.0936797291666667)
(0.7238924973633074 3.6170254583333330 0.1115920208333333)
(0.6308174996233297 3.4379025416666664 0.0578551458333333)
(0.6618424988699889 3.4379025416666664 0.0757674375000000)
(0.6928674981166482 3.4379025416666664 0.0936797291666667)
(0.7238924973633074 3.4379025416666664 0.1115920208333333)
(0.6308174996233297 3.2946042083333333 0.0578551458333333)
(0.6618424988699889 3.2946042083333333 0.0757674375000000)
(0.6928674981166482 3.2946042083333333 0.0936797291666667)
(0.7238924973633074 3.2946042083333333 0.1115920208333333)
(0.6308174996233297 3.1871304583333333 0.0578551458333333)
(0.6618424988699889 3.1871304583333333 0.0757674375000000)
(0.6928674981166482 3.1871304583333333 0.0936797291666667)
(0.7238924973633074 3.1871304583333333 0.1115920208333333)
// row 2 pressure taps on the top of the panel
(0.9159674996233297 3.9394467083333331 0.0603681458333333)
(0.9469924988699889 3.9394467083333331 0.0782804375000000)
(0.9780174981166482 3.9394467083333331 0.0961927291666667)
(1.0090424973633074 3.9394467083333331 0.1141050208333333)
(0.9159674996233297 3.8677975416666666 0.0603681458333333)
(0.9469924988699889 3.8677975416666666 0.0782804375000000)
(0.9780174981166482 3.8677975416666666 0.0961927291666667)
(1.0090424973633074 3.8677975416666666 0.1141050208333333)
(0.9159674996233297 3.7603237916666665 0.0603681458333333)
(0.9469924988699889 3.7603237916666665 0.0782804375000000)
(0.9780174981166482 3.7603237916666665 0.0961927291666667)
(1.0090424973633074 3.7603237916666665 0.1141050208333333)
(0.9159674996233297 3.6170254583333330 0.0603681458333333)
(0.9469924988699889 3.6170254583333330 0.0782804375000000)
(0.9780174981166482 3.6170254583333330 0.0961927291666667)
(1.0090424973633074 3.6170254583333330 0.1141050208333333)
(0.9159674996233297 3.4379025416666664 0.0603681458333333)
(0.9469924988699889 3.4379025416666664 0.0782804375000000)
(0.9780174981166482 3.4379025416666664 0.0961927291666667)
(1.0090424973633074 3.4379025416666664 0.1141050208333333)
(0.9159674996233297 3.2946042083333333 0.0603681458333333)
(0.9469924988699889 3.2946042083333333 0.0782804375000000)
(0.9780174981166482 3.2946042083333333 0.0961927291666667)
(1.0090424973633074 3.2946042083333333 0.1141050208333333)
(0.9159674996233297 3.1871304583333333 0.0603681458333333)
(0.9469924988699889 3.1871304583333333 0.0782804375000000)
(0.9780174981166482 3.1871304583333333 0.0961927291666667)
(1.0090424973633074 3.1871304583333333 0.1141050208333333)
// row 2 pressure taps on the bottom of the panel
(0.9174174996233296 3.9394467083333331 0.0578551458333333)
(0.9484424988699889 3.9394467083333331 0.0757674375000000)
(0.9794674981166481 3.9394467083333331 0.0936797291666667)
(1.0104924973633074 3.9394467083333331 0.1115920208333333)
(0.9174174996233296 3.8677975416666666 0.0578551458333333)
(0.9484424988699889 3.8677975416666666 0.0757674375000000)
(0.9794674981166481 3.8677975416666666 0.0936797291666667)
(1.0104924973633074 3.8677975416666666 0.1115920208333333)
(0.9174174996233296 3.7603237916666665 0.0578551458333333)
(0.9484424988699889 3.7603237916666665 0.0757674375000000)
(0.9794674981166481 3.7603237916666665 0.0936797291666667)
(1.0104924973633074 3.7603237916666665 0.1115920208333333)
(0.9174174996233296 3.6170254583333330 0.0578551458333333)
(0.9484424988699889 3.6170254583333330 0.0757674375000000)
(0.9794674981166481 3.6170254583333330 0.0936797291666667)
(1.0104924973633074 3.6170254583333330 0.1115920208333333)
(0.9174174996233296 3.4379025416666664 0.0578551458333333)
(0.9484424988699889 3.4379025416666664 0.0757674375000000)
(0.9794674981166481 3.4379025416666664 0.0936797291666667)
(1.0104924973633074 3.4379025416666664 0.1115920208333333)
(0.9174174996233296 3.2946042083333333 0.0578551458333333)
(0.9484424988699889 3.2946042083333333 0.0757674375000000)
(0.9794674981166481 3.2946042083333333 0.0936797291666667)
(1.0104924973633074 3.2946042083333333 0.1115920208333333)
(0.9174174996233296 3.1871304583333333 0.0578551458333333)
(0.9484424988699889 3.1871304583333333 0.0757674375000000)
(0.9794674981166481 3.1871304583333333 0.0936797291666667)
(1.0104924973633074 3.1871304583333333 0.1115920208333333)
// row 3 pressure taps on the top of the panel
(1.2025674996233295 3.9394467083333331 0.0603681458333333)
(1.2335924988699889 3.9394467083333331 0.0782804375000000)
(1.2646174981166483 3.9394467083333331 0.0961927291666667)
(1.2956424973633074 3.9394467083333331 0.1141050208333333)
(1.2025674996233295 3.8677975416666666 0.0603681458333333)
(1.2335924988699889 3.8677975416666666 0.0782804375000000)
(1.2646174981166483 3.8677975416666666 0.0961927291666667)
(1.2956424973633074 3.8677975416666666 0.1141050208333333)
(1.2025674996233295 3.7603237916666665 0.0603681458333333)
(1.2335924988699889 3.7603237916666665 0.0782804375000000)
(1.2646174981166483 3.7603237916666665 0.0961927291666667)
(1.2956424973633074 3.7603237916666665 0.1141050208333333)
(1.2025674996233295 3.6170254583333330 0.0603681458333333)
(1.2335924988699889 3.6170254583333330 0.0782804375000000)
(1.2646174981166483 3.6170254583333330 0.0961927291666667)
(1.2956424973633074 3.6170254583333330 0.1141050208333333)
(1.2025674996233295 3.4379025416666664 0.0603681458333333)
(1.2335924988699889 3.4379025416666664 0.0782804375000000)
(1.2646174981166483 3.4379025416666664 0.0961927291666667)
(1.2956424973633074 3.4379025416666664 0.1141050208333333)
(1.2025674996233295 3.2946042083333333 0.0603681458333333)
(1.2335924988699889 3.2946042083333333 0.0782804375000000)
(1.2646174981166483 3.2946042083333333 0.0961927291666667)
(1.2956424973633074 3.2946042083333333 0.1141050208333333)
(1.2025674996233295 3.1871304583333333 0.0603681458333333)
(1.2335924988699889 3.1871304583333333 0.0782804375000000)
(1.2646174981166483 3.1871304583333333 0.0961927291666667)
(1.2956424973633074 3.1871304583333333 0.1141050208333333)
// row 3 pressure taps on the bottom of the panel
(1.2040174996233295 3.9394467083333331 0.0578551458333333)
(1.2350424988699888 3.9394467083333331 0.0757674375000000)
(1.2660674981166482 3.9394467083333331 0.0936797291666667)
(1.2970924973633073 3.9394467083333331 0.1115920208333333)
(1.2040174996233295 3.8677975416666666 0.0578551458333333)
(1.2350424988699888 3.8677975416666666 0.0757674375000000)
(1.2660674981166482 3.8677975416666666 0.0936797291666667)
(1.2970924973633073 3.8677975416666666 0.1115920208333333)
(1.2040174996233295 3.7603237916666665 0.0578551458333333)
(1.2350424988699888 3.7603237916666665 0.0757674375000000)
(1.2660674981166482 3.7603237916666665 0.0936797291666667)
(1.2970924973633073 3.7603237916666665 0.1115920208333333)
(1.2040174996233295 3.6170254583333330 0.0578551458333333)
(1.2350424988699888 3.6170254583333330 0.0757674375000000)
(1.2660674981166482 3.6170254583333330 0.0936797291666667)
(1.2970924973633073 3.6170254583333330 0.1115920208333333)
(1.2040174996233295 3.4379025416666664 0.0578551458333333)
(1.2350424988699888 3.4379025416666664 0.0757674375000000)
(1.2660674981166482 3.4379025416666664 0.0936797291666667)
(1.2970924973633073 3.4379025416666664 0.1115920208333333)
(1.2040174996233295 3.2946042083333333 0.0578551458333333)
(1.2350424988699888 3.2946042083333333 0.0757674375000000)
(1.2660674981166482 3.2946042083333333 0.0936797291666667)
(1.2970924973633073 3.2946042083333333 0.1115920208333333)
(1.2040174996233295 3.1871304583333333 0.0578551458333333)
(1.2350424988699888 3.1871304583333333 0.0757674375000000)
(1.2660674981166482 3.1871304583333333 0.0936797291666667)
(1.2970924973633073 3.1871304583333333 0.1115920208333333)
// row 4 pressure taps on the top of the panel
(1.4891674996233295 3.9394467083333331 0.0603681458333333)
(1.5201924988699889 3.9394467083333331 0.0782804375000000)
(1.5512174981166482 3.9394467083333331 0.0961927291666667)
(1.5822424973633074 3.9394467083333331 0.1141050208333333)
(1.4891674996233295 3.8677975416666666 0.0603681458333333)
(1.5201924988699889 3.8677975416666666 0.0782804375000000)
(1.5512174981166482 3.8677975416666666 0.0961927291666667)
(1.5822424973633074 3.8677975416666666 0.1141050208333333)
(1.4891674996233295 3.7603237916666665 0.0603681458333333)
(1.5201924988699889 3.7603237916666665 0.0782804375000000)
(1.5512174981166482 3.7603237916666665 0.0961927291666667)
(1.5822424973633074 3.7603237916666665 0.1141050208333333)
(1.4891674996233295 3.6170254583333330 0.0603681458333333)
(1.5201924988699889 3.6170254583333330 0.0782804375000000)
(1.5512174981166482 3.6170254583333330 0.0961927291666667)
(1.5822424973633074 3.6170254583333330 0.1141050208333333)
(1.4891674996233295 3.4379025416666664 0.0603681458333333)
(1.5201924988699889 3.4379025416666664 0.0782804375000000)
(1.5512174981166482 3.4379025416666664 0.0961927291666667)
(1.5822424973633074 3.4379025416666664 0.1141050208333333)
(1.4891674996233295 3.2946042083333333 0.0603681458333333)
(1.5201924988699889 3.2946042083333333 0.0782804375000000)
(1.5512174981166482 3.2946042083333333 0.0961927291666667)
(1.5822424973633074 3.2946042083333333 0.1141050208333333)
(1.4891674996233295 3.1871304583333333 0.0603681458333333)
(1.5201924988699889 3.1871304583333333 0.0782804375000000)
(1.5512174981166482 3.1871304583333333 0.0961927291666667)
(1.5822424973633074 3.1871304583333333 0.1141050208333333)
// row 4 pressure taps on the bottom of the panel
(1.4906174996233297 3.9394467083333331 0.0578551458333333)
(1.5216424988699890 3.9394467083333331 0.0757674375000000)
(1.5526674981166484 3.9394467083333331 0.0936797291666667)
(1.5836924973633075 3.9394467083333331 0.1115920208333333)
(1.4906174996233297 3.8677975416666666 0.0578551458333333)
(1.5216424988699890 3.8677975416666666 0.0757674375000000)
(1.5526674981166484 3.8677975416666666 0.0936797291666667)
(1.5836924973633075 3.8677975416666666 0.1115920208333333)
(1.4906174996233297 3.7603237916666665 0.0578551458333333)
(1.5216424988699890 3.7603237916666665 0.0757674375000000)
(1.5526674981166484 3.7603237916666665 0.0936797291666667)
(1.5836924973633075 3.7603237916666665 0.1115920208333333)
(1.4906174996233297 3.6170254583333330 0.0578551458333333)
(1.5216424988699890 3.6170254583333330 0.0757674375000000)
(1.5526674981166484 3.6170254583333330 0.0936797291666667)
(1.5836924973633075 3.6170254583333330 0.1115920208333333)
(1.4906174996233297 3.4379025416666664 0.0578551458333333)
(1.5216424988699890 3.4379025416666664 0.0757674375000000)
(1.5526674981166484 3.4379025416666664 0.0936797291666667)
(1.5836924973633075 3.4379025416666664 0.1115920208333333)
(1.4906174996233297 3.2946042083333333 0.0578551458333333)
(1.5216424988699890 3.2946042083333333 0.0757674375000000)
(1.5526674981166484 3.2946042083333333 0.0936797291666667)
(1.5836924973633075 3.2946042083333333 0.1115920208333333)
(1.4906174996233297 3.1871304583333333 0.0578551458333333)
(1.5216424988699890 3.1871304583333333 0.0757674375000000)
(1.5526674981166484 3.1871304583333333 0.0936797291666667)
(1.5836924973633075 3.1871304583333333 0.1115920208333333)
// row 5 pressure taps on the top of the panel
(1.7757674996233295 3.9394467083333331 0.0603681458333333)
(1.8067924988699888 3.9394467083333331 0.0782804375000000)
(1.8378174981166482 3.9394467083333331 0.0961927291666667)
(1.8688424973633073 3.9394467083333331 0.1141050208333333)
(1.7757674996233295 3.8677975416666666 0.0603681458333333)
(1.8067924988699888 3.8677975416666666 0.0782804375000000)
(1.8378174981166482 3.8677975416666666 0.0961927291666667)
(1.8688424973633073 3.8677975416666666 0.1141050208333333)
(1.7757674996233295 3.7603237916666665 0.0603681458333333)
(1.8067924988699888 3.7603237916666665 0.0782804375000000)
(1.8378174981166482 3.7603237916666665 0.0961927291666667)
(1.8688424973633073 3.7603237916666665 0.1141050208333333)
(1.7757674996233295 3.6170254583333330 0.0603681458333333)
(1.8067924988699888 3.6170254583333330 0.0782804375000000)
(1.8378174981166482 3.6170254583333330 0.0961927291666667)
(1.8688424973633073 3.6170254583333330 0.1141050208333333)
(1.7757674996233295 3.4379025416666664 0.0603681458333333)
(1.8067924988699888 3.4379025416666664 0.0782804375000000)
(1.8378174981166482 3.4379025416666664 0.0961927291666667)
(1.8688424973633073 3.4379025416666664 0.1141050208333333)
(1.7757674996233295 3.2946042083333333 0.0603681458333333)
(1.8067924988699888 3.2946042083333333 0.0782804375000000)
(1.8378174981166482 3.2946042083333333 0.0961927291666667)
(1.8688424973633073 3.2946042083333333 0.1141050208333333)
(1.7757674996233295 3.1871304583333333 0.0603681458333333)
(1.8067924988699888 3.1871304583333333 0.0782804375000000)
(1.8378174981166482 3.1871304583333333 0.0961927291666667)
(1.8688424973633073 3.1871304583333333 0.1141050208333333)
// row 5 pressure taps on the bottom of the panel
(1.7772174996233296 3.9394467083333331 0.0578551458333333)
(1.8082424988699890 3.9394467083333331 0.0757674375000000)
(1.8392674981166484 3.9394467083333331 0.0936797291666667)
(1.8702924973633075 3.9394467083333331 0.1115920208333333)
(1.7772174996233296 3.8677975416666666 0.0578551458333333)
(1.8082424988699890 3.8677975416666666 0.0757674375000000)
(1.8392674981166484 3.8677975416666666 0.0936797291666667)
(1.8702924973633075 3.8677975416666666 0.1115920208333333)
(1.7772174996233296 3.7603237916666665 0.0578551458333333)
(1.8082424988699890 3.7603237916666665 0.0757674375000000)
(1.8392674981166484 3.7603237916666665 0.0936797291666667)
(1.8702924973633075 3.7603237916666665 0.1115920208333333)
(1.7772174996233296 3.6170254583333330 0.0578551458333333)
(1.8082424988699890 3.6170254583333330 0.0757674375000000)
(1.8392674981166484 3.6170254583333330 0.0936797291666667)
(1.8702924973633075 3.6170254583333330 0.1115920208333333)
(1.7772174996233296 3.4379025416666664 0.0578551458333333)
(1.8082424988699890 3.4379025416666664 0.0757674375000000)
(1.8392674981166484 3.4379025416666664 0.0936797291666667)
(1.8702924973633075 3.4379025416666664 0.1115920208333333)
(1.7772174996233296 3.2946042083333333 0.0578551458333333)
(1.8082424988699890 3.2946042083333333 0.0757674375000000)
(1.8392674981166484 3.2946042083333333 0.0936797291666667)
(1.8702924973633075 3.2946042083333333 0.1115920208333333)
(1.7772174996233296 3.1871304583333333 0.0578551458333333)
(1.8082424988699890 3.1871304583333333 0.0757674375000000)
(1.8392674981166484 3.1871304583333333 0.0936797291666667)
(1.8702924973633075 3.1871304583333333 0.1115920208333333)
// row 6 pressure taps on the top of the panel
(2.0623674996233294 3.9394467083333331 0.0603681458333333)
(2.0933924988699886 3.9394467083333331 0.0782804375000000)
(2.1244174981166482 3.9394467083333331 0.0961927291666667)
(2.1554424973633073 3.9394467083333331 0.1141050208333333)
(2.0623674996233294 3.8677975416666666 0.0603681458333333)
(2.0933924988699886 3.8677975416666666 0.0782804375000000)
(2.1244174981166482 3.8677975416666666 0.0961927291666667)
(2.1554424973633073 3.8677975416666666 0.1141050208333333)
(2.0623674996233294 3.7603237916666665 0.0603681458333333)
(2.0933924988699886 3.7603237916666665 0.0782804375000000)
(2.1244174981166482 3.7603237916666665 0.0961927291666667)
(2.1554424973633073 3.7603237916666665 0.1141050208333333)
(2.0623674996233294 3.6170254583333330 0.0603681458333333)
(2.0933924988699886 3.6170254583333330 0.0782804375000000)
(2.1244174981166482 3.6170254583333330 0.0961927291666667)
(2.1554424973633073 3.6170254583333330 0.1141050208333333)
(2.0623674996233294 3.4379025416666664 0.0603681458333333)
(2.0933924988699886 3.4379025416666664 0.0782804375000000)
(2.1244174981166482 3.4379025416666664 0.0961927291666667)
(2.1554424973633073 3.4379025416666664 0.1141050208333333)
(2.0623674996233294 3.2946042083333333 0.0603681458333333)
(2.0933924988699886 3.2946042083333333 0.0782804375000000)
(2.1244174981166482 3.2946042083333333 0.0961927291666667)
(2.1554424973633073 3.2946042083333333 0.1141050208333333)
(2.0623674996233294 3.1871304583333333 0.0603681458333333)
(2.0933924988699886 3.1871304583333333 0.0782804375000000)
(2.1244174981166482 3.1871304583333333 0.0961927291666667)
(2.1554424973633073 3.1871304583333333 0.1141050208333333)
// row 6 pressure taps on the bottom of the panel
(2.0638174996233296 3.9394467083333331 0.0578551458333333)
(2.0948424988699887 3.9394467083333331 0.0757674375000000)
(2.1258674981166483 3.9394467083333331 0.0936797291666667)
(2.1568924973633075 3.9394467083333331 0.1115920208333333)
(2.0638174996233296 3.8677975416666666 0.0578551458333333)
(2.0948424988699887 3.8677975416666666 0.0757674375000000)
(2.1258674981166483 3.8677975416666666 0.0936797291666667)
(2.1568924973633075 3.8677975416666666 0.1115920208333333)
(2.0638174996233296 3.7603237916666665 0.0578551458333333)
(2.0948424988699887 3.7603237916666665 0.0757674375000000)
(2.1258674981166483 3.7603237916666665 0.0936797291666667)
(2.1568924973633075 3.7603237916666665 0.1115920208333333)
(2.0638174996233296 3.6170254583333330 0.0578551458333333)
(2.0948424988699887 3.6170254583333330 0.0757674375000000)
(2.1258674981166483 3.6170254583333330 0.0936797291666667)
(2.1568924973633075 3.6170254583333330 0.1115920208333333)
(2.0638174996233296 3.4379025416666664 0.0578551458333333)
(2.0948424988699887 3.4379025416666664 0.0757674375000000)
(2.1258674981166483 3.4379025416666664 0.0936797291666667)
(2.1568924973633075 3.4379025416666664 0.1115920208333333)
(2.0638174996233296 3.2946042083333333 0.0578551458333333)
(2.0948424988699887 3.2946042083333333 0.0757674375000000)
(2.1258674981166483 3.2946042083333333 0.0936797291666667)
(2.1568924973633075 3.2946042083333333 0.1115920208333333)
(2.0638174996233296 3.1871304583333333 0.0578551458333333)
(2.0948424988699887 3.1871304583333333 0.0757674375000000)
(2.1258674981166483 3.1871304583333333 0.0936797291666667)
(2.1568924973633075 3.1871304583333333 0.1115920208333333)
// row 7 pressure taps on the top of the panel
(2.3489674996233294 3.9394467083333331 0.0603681458333333)
(2.3799924988699885 3.9394467083333331 0.0782804375000000)
(2.4110174981166481 3.9394467083333331 0.0961927291666667)
(2.4420424973633073 3.9394467083333331 0.1141050208333333)
(2.3489674996233294 3.8677975416666666 0.0603681458333333)
(2.3799924988699885 3.8677975416666666 0.0782804375000000)
(2.4110174981166481 3.8677975416666666 0.0961927291666667)
(2.4420424973633073 3.8677975416666666 0.1141050208333333)
(2.3489674996233294 3.7603237916666665 0.0603681458333333)
(2.3799924988699885 3.7603237916666665 0.0782804375000000)
(2.4110174981166481 3.7603237916666665 0.0961927291666667)
(2.4420424973633073 3.7603237916666665 0.1141050208333333)
(2.3489674996233294 3.6170254583333330 0.0603681458333333)
(2.3799924988699885 3.6170254583333330 0.0782804375000000)
(2.4110174981166481 3.6170254583333330 0.0961927291666667)
(2.4420424973633073 3.6170254583333330 0.1141050208333333)
(2.3489674996233294 3.4379025416666664 0.0603681458333333)
(2.3799924988699885 3.4379025416666664 0.0782804375000000)
(2.4110174981166481 3.4379025416666664 0.0961927291666667)
(2.4420424973633073 3.4379025416666664 0.1141050208333333)
(2.3489674996233294 3.2946042083333333 0.0603681458333333)
(2.3799924988699885 3.2946042083333333 0.0782804375000000)
(2.4110174981166481 3.2946042083333333 0.0961927291666667)
(2.4420424973633073 3.2946042083333333 0.1141050208333333)
(2.3489674996233294 3.1871304583333333 0.0603681458333333)
(2.3799924988699885 3.1871304583333333 0.0782804375000000)
(2.4110174981166481 3.1871304583333333 0.0961927291666667)
(2.4420424973633073 3.1871304583333333 0.1141050208333333)
// row 7 pressure taps on the bottom of the panel
(2.3504174996233296 3.9394467083333331 0.0578551458333333)
(2.3814424988699887 3.9394467083333331 0.0757674375000000)
(2.4124674981166483 3.9394467083333331 0.0936797291666667)
(2.4434924973633074 3.9394467083333331 0.1115920208333333)
(2.3504174996233296 3.8677975416666666 0.0578551458333333)
(2.3814424988699887 3.8677975416666666 0.0757674375000000)
(2.4124674981166483 3.8677975416666666 0.0936797291666667)
(2.4434924973633074 3.8677975416666666 0.1115920208333333)
(2.3504174996233296 3.7603237916666665 0.0578551458333333)
(2.3814424988699887 3.7603237916666665 0.0757674375000000)
(2.4124674981166483 3.7603237916666665 0.0936797291666667)
(2.4434924973633074 3.7603237916666665 0.1115920208333333)
(2.3504174996233296 3.6170254583333330 0.0578551458333333)
(2.3814424988699887 3.6170254583333330 0.0757674375000000)
(2.4124674981166483 3.6170254583333330 0.0936797291666667)
(2.4434924973633074 3.6170254583333330 0.1115920208333333)
(2.3504174996233296 3.4379025416666664 0.0578551458333333)
(2.3814424988699887 3.4379025416666664 0.0757674375000000)
(2.4124674981166483 3.4379025416666664 0.0936797291666667)
(2.4434924973633074 3.4379025416666664 0.1115920208333333)
(2.3504174996233296 3.2946042083333333 0.0578551458333333)
(2.3814424988699887 3.2946042083333333 0.0757674375000000)
(2.4124674981166483 3.2946042083333333 0.0936797291666667)
(2.4434924973633074 3.2946042083333333 0.1115920208333333)
(2.3504174996233296 3.1871304583333333 0.0578551458333333)
(2.3814424988699887 3.1871304583333333 0.0757674375000000)
(2.4124674981166483 3.1871304583333333 0.0936797291666667)
(2.4434924973633074 3.1871304583333333 0.1115920208333333)
            
        );
}

// ************************************************************************* //
