/*--------------------------------*- C++ -*----------------------------------*\
  =========                 |
  \\      /  F ield         | OpenFOAM: The Open Source CFD Toolbox
   \\    /   O peration     | Website:  https://openfoam.org
    \\  /    A nd           | Version:  7
     \\/     M anipulation  |
\*---------------------------------------------------------------------------*/
FoamFile
{
    version     2.0;
    format      ascii;
    class       dictionary;
    object      controlDict;
}
// * * * * * * * * * * * * * * * * * * * * * * * * * * * * * * * * * * * * * //
libs            ("libturbulentInflow.so");
application     pisoFoam;

startFrom       startTime;

startTime       0;

stopAt          endTime;

endTime         15.0;

deltaT          1e-4;

writeControl    timeStep;

writeInterval   10000;

purgeWrite      0;

writeFormat     binary;

writePrecision  6;

writeCompression off;

timeFormat      general;

timePrecision   6;

runTimeModifiable true;

functions
{
    // #include "cuttingPlane"
    // #include "streamLines"
    // #include "forceCoeffs"
    probes
    {
        type            probes;
        libs            ("libsampling.so");
        writeControl    timeStep;
        writeInterval   50;

        fields
        (
            p
            U
        );

        probeLocations
        (
            // pressure taps on the top of the panel
            (1.95482408301944    3.12726909027778    0.0496204548611111)
            (1.98067824905832    3.12726909027778    0.0645473645833333)
            (2.00653241509721    3.12726909027778    0.0794742743055555)
            (2.03238658113609    3.12726909027778    0.0944011840277778)
            (1.95482408301944    3.06756145138889    0.0496204548611111)
            (1.98067824905832    3.06756145138889    0.0645473645833333)
            (2.00653241509721    3.06756145138889    0.0794742743055555)
            (2.03238658113609    3.06756145138889    0.0944011840277778)
            (1.95482408301944    2.97799999305556    0.0496204548611111)
            (1.98067824905832    2.97799999305556    0.0645473645833333)
            (2.00653241509721    2.97799999305556    0.0794742743055555)
            (2.03238658113609    2.97799999305556    0.0944011840277778)
            (1.95482408301944    2.85858471527778    0.0496204548611111)
            (1.98067824905832    2.85858471527778    0.0645473645833333)
            (2.00653241509721    2.85858471527778    0.0794742743055555)
            (2.03238658113609    2.85858471527778    0.0944011840277778)
            (1.95482408301944    2.70931561805556    0.0496204548611111)
            (1.98067824905832    2.70931561805556    0.0645473645833333)
            (2.00653241509721    2.70931561805556    0.0794742743055555)
            (2.03238658113609    2.70931561805556    0.0944011840277778)
            (1.95482408301944    2.58990034027778    0.0496204548611111)
            (1.98067824905832    2.58990034027778    0.0645473645833333)
            (2.00653241509721    2.58990034027778    0.0794742743055555)
            (2.03238658113609    2.58990034027778    0.0944011840277778)
            (1.95482408301944    2.50033888194444    0.0496204548611111)
            (1.98067824905832    2.50033888194444    0.0645473645833333)
            (2.00653241509721    2.50033888194444    0.0794742743055555)
            (2.03238658113609    2.50033888194444    0.0944011840277778)

            // pressure taps on the bottom of the panel
            (1.95524108301944    3.12726909027778    0.0488984548611111)
            (1.98109524905832    3.12726909027778    0.0638253645833333)
            (2.00694941509721    3.12726909027778    0.0787522743055555)
            (2.03280358113609    3.12726909027778    0.0936791840277778)
            (1.95524108301944    3.06756145138889    0.0488984548611111)
            (1.98109524905832    3.06756145138889    0.0638253645833333)
            (2.00694941509721    3.06756145138889    0.0787522743055555)
            (2.03280358113609    3.06756145138889    0.0936791840277778)
            (1.95524108301944    2.97799999305556    0.0488984548611111)
            (1.98109524905832    2.97799999305556    0.0638253645833333)
            (2.00694941509721    2.97799999305556    0.0787522743055555)
            (2.03280358113609    2.97799999305556    0.0936791840277778)
            (1.95524108301944    2.85858471527778    0.0488984548611111)
            (1.98109524905832    2.85858471527778    0.0638253645833333)
            (2.00694941509721    2.85858471527778    0.0787522743055555)
            (2.03280358113609    2.85858471527778    0.0936791840277778)
            (1.95524108301944    2.70931561805556    0.0488984548611111)
            (1.98109524905832    2.70931561805556    0.0638253645833333)
            (2.00694941509721    2.70931561805556    0.0787522743055555)
            (2.03280358113609    2.70931561805556    0.0936791840277778)
            (1.95524108301944    2.58990034027778    0.0488984548611111)
            (1.98109524905832    2.58990034027778    0.0638253645833333)
            (2.00694941509721    2.58990034027778    0.0787522743055555)
            (2.03280358113609    2.58990034027778    0.0936791840277778)
            (1.95524108301944    2.50033888194444    0.0488984548611111)
            (1.98109524905832    2.50033888194444    0.0638253645833333)
            (2.00694941509721    2.50033888194444    0.0787522743055555)
            (2.03280358113609    2.50033888194444    0.0936791840277778)
        );
}

// ************************************************************************* //
