/*--------------------------------*- C++ -*----------------------------------*\
  =========                 |
  \\      /  F ield         | OpenFOAM: The Open Source CFD Toolbox
   \\    /   O peration     | Website:  https://openfoam.org
    \\  /    A nd           | Version:  7
     \\/     M anipulation  |
\*---------------------------------------------------------------------------*/
FoamFile
{
    version     2.0;
    format      ascii;
    class       dictionary;
    object      controlDict;
}
// * * * * * * * * * * * * * * * * * * * * * * * * * * * * * * * * * * * * * //
libs            ("libturbulentInflow.so");
application     pisoFoam;

startFrom       startTime;

startTime       0;

stopAt          endTime;

endTime         20.0;

deltaT          1e-4;

writeControl    timeStep;

writeInterval   10000;

purgeWrite      0;

writeFormat     binary;

writePrecision  6;

writeCompression off;

timeFormat      general;

timePrecision   6;

runTimeModifiable true;

functions
{
    // #include "cuttingPlane"
    // #include "streamLines"
    // #include "forceCoeffs"
    probes
    {
        type            probes;
        libs            ("libsampling.so");
        writeControl    timeStep;
        writeInterval   20;

        fields
        (
            p
            U
        );

        probeLocations
        (
            // row 1 pressure taps on the top of the panel
(0.629367499623330   3.93944670833333    0.0603671458333333)
(0.660392498869989   3.93944670833333    0.0782794375000000)
(0.691417498116648   3.93944670833333    0.0961917291666667)
(0.722442497363308   3.93944670833333    0.114104020833333)
(0.629367499623330   3.86779754166667    0.0603671458333333)
(0.660392498869989   3.86779754166667    0.0782794375000000)
(0.691417498116648   3.86779754166667    0.0961917291666667)
(0.722442497363308   3.86779754166667    0.114104020833333)
(0.629367499623330   3.76032379166667    0.0603671458333333)
(0.660392498869989   3.76032379166667    0.0782794375000000)
(0.691417498116648   3.76032379166667    0.0961917291666667)
(0.722442497363308   3.76032379166667    0.114104020833333)
(0.629367499623330   3.61702545833333    0.0603671458333333)
(0.660392498869989   3.61702545833333    0.0782794375000000)
(0.691417498116648   3.61702545833333    0.0961917291666667)
(0.722442497363308   3.61702545833333    0.114104020833333)
(0.629367499623330   3.43790254166667    0.0603671458333333)
(0.660392498869989   3.43790254166667    0.0782794375000000)
(0.691417498116648   3.43790254166667    0.0961917291666667)
(0.722442497363308   3.43790254166667    0.114104020833333)
(0.629367499623330   3.29460420833333    0.0603671458333333)
(0.660392498869989   3.29460420833333    0.0782794375000000)
(0.691417498116648   3.29460420833333    0.0961917291666667)
(0.722442497363308   3.29460420833333    0.114104020833333)
(0.629367499623330   3.18713045833333    0.0603671458333333)
(0.660392498869989   3.18713045833333    0.0782794375000000)
(0.691417498116648   3.18713045833333    0.0961917291666667)
(0.722442497363308   3.18713045833333    0.114104020833333)
            // row 1 pressure taps on the bottom of the panel
(0.630817499623330   3.93944670833333    0.0578561458333333)
(0.661842498869989   3.93944670833333    0.0757684375000000)
(0.692867498116648   3.93944670833333    0.0936807291666667)
(0.723892497363307   3.93944670833333    0.111593020833333)
(0.630817499623330   3.86779754166667    0.0578561458333333)
(0.661842498869989   3.86779754166667    0.0757684375000000)
(0.692867498116648   3.86779754166667    0.0936807291666667)
(0.723892497363307   3.86779754166667    0.111593020833333)
(0.630817499623330   3.76032379166667    0.0578561458333333)
(0.661842498869989   3.76032379166667    0.0757684375000000)
(0.692867498116648   3.76032379166667    0.0936807291666667)
(0.723892497363307   3.76032379166667    0.111593020833333)
(0.630817499623330   3.61702545833333    0.0578561458333333)
(0.661842498869989   3.61702545833333    0.0757684375000000)
(0.692867498116648   3.61702545833333    0.0936807291666667)
(0.723892497363307   3.61702545833333    0.111593020833333)
(0.630817499623330   3.43790254166667    0.0578561458333333)
(0.661842498869989   3.43790254166667    0.0757684375000000)
(0.692867498116648   3.43790254166667    0.0936807291666667)
(0.723892497363307   3.43790254166667    0.111593020833333)
(0.630817499623330   3.29460420833333    0.0578561458333333)
(0.661842498869989   3.29460420833333    0.0757684375000000)
(0.692867498116648   3.29460420833333    0.0936807291666667)
(0.723892497363307   3.29460420833333    0.111593020833333)
(0.630817499623330   3.18713045833333    0.0578561458333333)
(0.661842498869989   3.18713045833333    0.0757684375000000)
(0.692867498116648   3.18713045833333    0.0936807291666667)
(0.723892497363307   3.18713045833333    0.111593020833333)

            // row 2 pressure taps on the top of the panel
(0.915967499623330   3.93944670833333    0.0603671458333333)
(0.946992498869989   3.93944670833333    0.0782794375000000)
(0.978017498116648   3.93944670833333    0.0961917291666667)
(1.00904249736331    3.93944670833333    0.114104020833333)
(0.915967499623330   3.86779754166667    0.0603671458333333)
(0.946992498869989   3.86779754166667    0.0782794375000000)
(0.978017498116648   3.86779754166667    0.0961917291666667)
(1.00904249736331    3.86779754166667    0.114104020833333)
(0.915967499623330   3.76032379166667    0.0603671458333333)
(0.946992498869989   3.76032379166667    0.0782794375000000)
(0.978017498116648   3.76032379166667    0.0961917291666667)
(1.00904249736331    3.76032379166667    0.114104020833333)
(0.915967499623330   3.61702545833333    0.0603671458333333)
(0.946992498869989   3.61702545833333    0.0782794375000000)
(0.978017498116648   3.61702545833333    0.0961917291666667)
(1.00904249736331    3.61702545833333    0.114104020833333)
(0.915967499623330   3.43790254166667    0.0603671458333333)
(0.946992498869989   3.43790254166667    0.0782794375000000)
(0.978017498116648   3.43790254166667    0.0961917291666667)
(1.00904249736331    3.43790254166667    0.114104020833333)
(0.915967499623330   3.29460420833333    0.0603671458333333)
(0.946992498869989   3.29460420833333    0.0782794375000000)
(0.978017498116648   3.29460420833333    0.0961917291666667)
(1.00904249736331    3.29460420833333    0.114104020833333)
(0.915967499623330   3.18713045833333    0.0603671458333333)
(0.946992498869989   3.18713045833333    0.0782794375000000)
(0.978017498116648   3.18713045833333    0.0961917291666667)
(1.00904249736331    3.18713045833333    0.114104020833333)
            // row 2 pressure taps on the bottom of the panel
(0.917417499623330   3.93944670833333    0.0578561458333333)
(0.948442498869989   3.93944670833333    0.0757684375000000)
(0.979467498116648   3.93944670833333    0.0936807291666667)
(1.01049249736331    3.93944670833333    0.111593020833333)
(0.917417499623330   3.86779754166667    0.0578561458333333)
(0.948442498869989   3.86779754166667    0.0757684375000000)
(0.979467498116648   3.86779754166667    0.0936807291666667)
(1.01049249736331    3.86779754166667    0.111593020833333)
(0.917417499623330   3.76032379166667    0.0578561458333333)
(0.948442498869989   3.76032379166667    0.0757684375000000)
(0.979467498116648   3.76032379166667    0.0936807291666667)
(1.01049249736331    3.76032379166667    0.111593020833333)
(0.917417499623330   3.61702545833333    0.0578561458333333)
(0.948442498869989   3.61702545833333    0.0757684375000000)
(0.979467498116648   3.61702545833333    0.0936807291666667)
(1.01049249736331    3.61702545833333    0.111593020833333)
(0.917417499623330   3.43790254166667    0.0578561458333333)
(0.948442498869989   3.43790254166667    0.0757684375000000)
(0.979467498116648   3.43790254166667    0.0936807291666667)
(1.01049249736331    3.43790254166667    0.111593020833333)
(0.917417499623330   3.29460420833333    0.0578561458333333)
(0.948442498869989   3.29460420833333    0.0757684375000000)
(0.979467498116648   3.29460420833333    0.0936807291666667)
(1.01049249736331    3.29460420833333    0.111593020833333)
(0.917417499623330   3.18713045833333    0.0578561458333333)
(0.948442498869989   3.18713045833333    0.0757684375000000)
(0.979467498116648   3.18713045833333    0.0936807291666667)
(1.01049249736331    3.18713045833333    0.111593020833333)

            // row 3 pressure taps on the top of the panel
(1.20256749962333    3.93944670833333    0.0603671458333333)
(1.23359249886999    3.93944670833333    0.0782794375000000)
(1.26461749811665    3.93944670833333    0.0961917291666667)
(1.29564249736331    3.93944670833333    0.114104020833333)
(1.20256749962333    3.86779754166667    0.0603671458333333)
(1.23359249886999    3.86779754166667    0.0782794375000000)
(1.26461749811665    3.86779754166667    0.0961917291666667)
(1.29564249736331    3.86779754166667    0.114104020833333)
(1.20256749962333    3.76032379166667    0.0603671458333333)
(1.23359249886999    3.76032379166667    0.0782794375000000)
(1.26461749811665    3.76032379166667    0.0961917291666667)
(1.29564249736331    3.76032379166667    0.114104020833333)
(1.20256749962333    3.61702545833333    0.0603671458333333)
(1.23359249886999    3.61702545833333    0.0782794375000000)
(1.26461749811665    3.61702545833333    0.0961917291666667)
(1.29564249736331    3.61702545833333    0.114104020833333)
(1.20256749962333    3.43790254166667    0.0603671458333333)
(1.23359249886999    3.43790254166667    0.0782794375000000)
(1.26461749811665    3.43790254166667    0.0961917291666667)
(1.29564249736331    3.43790254166667    0.114104020833333)
(1.20256749962333    3.29460420833333    0.0603671458333333)
(1.23359249886999    3.29460420833333    0.0782794375000000)
(1.26461749811665    3.29460420833333    0.0961917291666667)
(1.29564249736331    3.29460420833333    0.114104020833333)
(1.20256749962333    3.18713045833333    0.0603671458333333)
(1.23359249886999    3.18713045833333    0.0782794375000000)
(1.26461749811665    3.18713045833333    0.0961917291666667)
(1.29564249736331    3.18713045833333    0.114104020833333)
            // row 3 pressure taps on the bottom of the panel
(1.20401749962333    3.93944670833333    0.0578561458333333)
(1.23504249886999    3.93944670833333    0.0757684375000000)
(1.26606749811665    3.93944670833333    0.0936807291666667)
(1.29709249736331    3.93944670833333    0.111593020833333)
(1.20401749962333    3.86779754166667    0.0578561458333333)
(1.23504249886999    3.86779754166667    0.0757684375000000)
(1.26606749811665    3.86779754166667    0.0936807291666667)
(1.29709249736331    3.86779754166667    0.111593020833333)
(1.20401749962333    3.76032379166667    0.0578561458333333)
(1.23504249886999    3.76032379166667    0.0757684375000000)
(1.26606749811665    3.76032379166667    0.0936807291666667)
(1.29709249736331    3.76032379166667    0.111593020833333)
(1.20401749962333    3.61702545833333    0.0578561458333333)
(1.23504249886999    3.61702545833333    0.0757684375000000)
(1.26606749811665    3.61702545833333    0.0936807291666667)
(1.29709249736331    3.61702545833333    0.111593020833333)
(1.20401749962333    3.43790254166667    0.0578561458333333)
(1.23504249886999    3.43790254166667    0.0757684375000000)
(1.26606749811665    3.43790254166667    0.0936807291666667)
(1.29709249736331    3.43790254166667    0.111593020833333)
(1.20401749962333    3.29460420833333    0.0578561458333333)
(1.23504249886999    3.29460420833333    0.0757684375000000)
(1.26606749811665    3.29460420833333    0.0936807291666667)
(1.29709249736331    3.29460420833333    0.111593020833333)
(1.20401749962333    3.18713045833333    0.0578561458333333)
(1.23504249886999    3.18713045833333    0.0757684375000000)
(1.26606749811665    3.18713045833333    0.0936807291666667)
(1.29709249736331    3.18713045833333    0.111593020833333)

            // row 4 pressure taps on the top of the panel
(1.48916749962333    3.93944670833333    0.0603671458333333)
(1.52019249886999    3.93944670833333    0.0782794375000000)
(1.55121749811665    3.93944670833333    0.0961917291666667)
(1.58224249736331    3.93944670833333    0.114104020833333)
(1.48916749962333    3.86779754166667    0.0603671458333333)
(1.52019249886999    3.86779754166667    0.0782794375000000)
(1.55121749811665    3.86779754166667    0.0961917291666667)
(1.58224249736331    3.86779754166667    0.114104020833333)
(1.48916749962333    3.76032379166667    0.0603671458333333)
(1.52019249886999    3.76032379166667    0.0782794375000000)
(1.55121749811665    3.76032379166667    0.0961917291666667)
(1.58224249736331    3.76032379166667    0.114104020833333)
(1.48916749962333    3.61702545833333    0.0603671458333333)
(1.52019249886999    3.61702545833333    0.0782794375000000)
(1.55121749811665    3.61702545833333    0.0961917291666667)
(1.58224249736331    3.61702545833333    0.114104020833333)
(1.48916749962333    3.43790254166667    0.0603671458333333)
(1.52019249886999    3.43790254166667    0.0782794375000000)
(1.55121749811665    3.43790254166667    0.0961917291666667)
(1.58224249736331    3.43790254166667    0.114104020833333)
(1.48916749962333    3.29460420833333    0.0603671458333333)
(1.52019249886999    3.29460420833333    0.0782794375000000)
(1.55121749811665    3.29460420833333    0.0961917291666667)
(1.58224249736331    3.29460420833333    0.114104020833333)
(1.48916749962333    3.18713045833333    0.0603671458333333)
(1.52019249886999    3.18713045833333    0.0782794375000000)
(1.55121749811665    3.18713045833333    0.0961917291666667)
(1.58224249736331    3.18713045833333    0.114104020833333)
            // row 4 pressure taps on the bottom of the panel
(1.49061749962333    3.93944670833333    0.0578561458333333)
(1.52164249886999    3.93944670833333    0.0757684375000000)
(1.55266749811665    3.93944670833333    0.0936807291666667)
(1.58369249736331    3.93944670833333    0.111593020833333)
(1.49061749962333    3.86779754166667    0.0578561458333333)
(1.52164249886999    3.86779754166667    0.0757684375000000)
(1.55266749811665    3.86779754166667    0.0936807291666667)
(1.58369249736331    3.86779754166667    0.111593020833333)
(1.49061749962333    3.76032379166667    0.0578561458333333)
(1.52164249886999    3.76032379166667    0.0757684375000000)
(1.55266749811665    3.76032379166667    0.0936807291666667)
(1.58369249736331    3.76032379166667    0.111593020833333)
(1.49061749962333    3.61702545833333    0.0578561458333333)
(1.52164249886999    3.61702545833333    0.0757684375000000)
(1.55266749811665    3.61702545833333    0.0936807291666667)
(1.58369249736331    3.61702545833333    0.111593020833333)
(1.49061749962333    3.43790254166667    0.0578561458333333)
(1.52164249886999    3.43790254166667    0.0757684375000000)
(1.55266749811665    3.43790254166667    0.0936807291666667)
(1.58369249736331    3.43790254166667    0.111593020833333)
(1.49061749962333    3.29460420833333    0.0578561458333333)
(1.52164249886999    3.29460420833333    0.0757684375000000)
(1.55266749811665    3.29460420833333    0.0936807291666667)
(1.58369249736331    3.29460420833333    0.111593020833333)
(1.49061749962333    3.18713045833333    0.0578561458333333)
(1.52164249886999    3.18713045833333    0.0757684375000000)
(1.55266749811665    3.18713045833333    0.0936807291666667)
(1.58369249736331    3.18713045833333    0.111593020833333)

            // row 5 pressure taps on the top of the panel
(1.77576749962333    3.93944670833333    0.0603671458333333)
(1.80679249886999    3.93944670833333    0.0782794375000000)
(1.83781749811665    3.93944670833333    0.0961917291666667)
(1.86884249736331    3.93944670833333    0.114104020833333)
(1.77576749962333    3.86779754166667    0.0603671458333333)
(1.80679249886999    3.86779754166667    0.0782794375000000)
(1.83781749811665    3.86779754166667    0.0961917291666667)
(1.86884249736331    3.86779754166667    0.114104020833333)
(1.77576749962333    3.76032379166667    0.0603671458333333)
(1.80679249886999    3.76032379166667    0.0782794375000000)
(1.83781749811665    3.76032379166667    0.0961917291666667)
(1.86884249736331    3.76032379166667    0.114104020833333)
(1.77576749962333    3.61702545833333    0.0603671458333333)
(1.80679249886999    3.61702545833333    0.0782794375000000)
(1.83781749811665    3.61702545833333    0.0961917291666667)
(1.86884249736331    3.61702545833333    0.114104020833333)
(1.77576749962333    3.43790254166667    0.0603671458333333)
(1.80679249886999    3.43790254166667    0.0782794375000000)
(1.83781749811665    3.43790254166667    0.0961917291666667)
(1.86884249736331    3.43790254166667    0.114104020833333)
(1.77576749962333    3.29460420833333    0.0603671458333333)
(1.80679249886999    3.29460420833333    0.0782794375000000)
(1.83781749811665    3.29460420833333    0.0961917291666667)
(1.86884249736331    3.29460420833333    0.114104020833333)
(1.77576749962333    3.18713045833333    0.0603671458333333)
(1.80679249886999    3.18713045833333    0.0782794375000000)
(1.83781749811665    3.18713045833333    0.0961917291666667)
(1.86884249736331    3.18713045833333    0.114104020833333)
            // row 5 pressure taps on the bottom of the panel
(1.77721749962333    3.93944670833333    0.0578561458333333)
(1.80824249886999    3.93944670833333    0.0757684375000000)
(1.83926749811665    3.93944670833333    0.0936807291666667)
(1.87029249736331    3.93944670833333    0.111593020833333)
(1.77721749962333    3.86779754166667    0.0578561458333333)
(1.80824249886999    3.86779754166667    0.0757684375000000)
(1.83926749811665    3.86779754166667    0.0936807291666667)
(1.87029249736331    3.86779754166667    0.111593020833333)
(1.77721749962333    3.76032379166667    0.0578561458333333)
(1.80824249886999    3.76032379166667    0.0757684375000000)
(1.83926749811665    3.76032379166667    0.0936807291666667)
(1.87029249736331    3.76032379166667    0.111593020833333)
(1.77721749962333    3.61702545833333    0.0578561458333333)
(1.80824249886999    3.61702545833333    0.0757684375000000)
(1.83926749811665    3.61702545833333    0.0936807291666667)
(1.87029249736331    3.61702545833333    0.111593020833333)
(1.77721749962333    3.43790254166667    0.0578561458333333)
(1.80824249886999    3.43790254166667    0.0757684375000000)
(1.83926749811665    3.43790254166667    0.0936807291666667)
(1.87029249736331    3.43790254166667    0.111593020833333)
(1.77721749962333    3.29460420833333    0.0578561458333333)
(1.80824249886999    3.29460420833333    0.0757684375000000)
(1.83926749811665    3.29460420833333    0.0936807291666667)
(1.87029249736331    3.29460420833333    0.111593020833333)
(1.77721749962333    3.18713045833333    0.0578561458333333)
(1.80824249886999    3.18713045833333    0.0757684375000000)
(1.83926749811665    3.18713045833333    0.0936807291666667)
(1.87029249736331    3.18713045833333    0.111593020833333)

            // row 6 pressure taps on the top of the panel
(2.06236749962333    3.93944670833333    0.0603671458333333)
(2.09339249886999    3.93944670833333    0.0782794375000000)
(2.12441749811665    3.93944670833333    0.0961917291666667)
(2.15544249736331    3.93944670833333    0.114104020833333)
(2.06236749962333    3.86779754166667    0.0603671458333333)
(2.09339249886999    3.86779754166667    0.0782794375000000)
(2.12441749811665    3.86779754166667    0.0961917291666667)
(2.15544249736331    3.86779754166667    0.114104020833333)
(2.06236749962333    3.76032379166667    0.0603671458333333)
(2.09339249886999    3.76032379166667    0.0782794375000000)
(2.12441749811665    3.76032379166667    0.0961917291666667)
(2.15544249736331    3.76032379166667    0.114104020833333)
(2.06236749962333    3.61702545833333    0.0603671458333333)
(2.09339249886999    3.61702545833333    0.0782794375000000)
(2.12441749811665    3.61702545833333    0.0961917291666667)
(2.15544249736331    3.61702545833333    0.114104020833333)
(2.06236749962333    3.43790254166667    0.0603671458333333)
(2.09339249886999    3.43790254166667    0.0782794375000000)
(2.12441749811665    3.43790254166667    0.0961917291666667)
(2.15544249736331    3.43790254166667    0.114104020833333)
(2.06236749962333    3.29460420833333    0.0603671458333333)
(2.09339249886999    3.29460420833333    0.0782794375000000)
(2.12441749811665    3.29460420833333    0.0961917291666667)
(2.15544249736331    3.29460420833333    0.114104020833333)
(2.06236749962333    3.18713045833333    0.0603671458333333)
(2.09339249886999    3.18713045833333    0.0782794375000000)
(2.12441749811665    3.18713045833333    0.0961917291666667)
(2.15544249736331    3.18713045833333    0.114104020833333)
            // row 6 pressure taps on the bottom of the panel
(2.06381749962333    3.93944670833333    0.0578561458333333)
(2.09484249886999    3.93944670833333    0.0757684375000000)
(2.12586749811665    3.93944670833333    0.0936807291666667)
(2.15689249736331    3.93944670833333    0.111593020833333)
(2.06381749962333    3.86779754166667    0.0578561458333333)
(2.09484249886999    3.86779754166667    0.0757684375000000)
(2.12586749811665    3.86779754166667    0.0936807291666667)
(2.15689249736331    3.86779754166667    0.111593020833333)
(2.06381749962333    3.76032379166667    0.0578561458333333)
(2.09484249886999    3.76032379166667    0.0757684375000000)
(2.12586749811665    3.76032379166667    0.0936807291666667)
(2.15689249736331    3.76032379166667    0.111593020833333)
(2.06381749962333    3.61702545833333    0.0578561458333333)
(2.09484249886999    3.61702545833333    0.0757684375000000)
(2.12586749811665    3.61702545833333    0.0936807291666667)
(2.15689249736331    3.61702545833333    0.111593020833333)
(2.06381749962333    3.43790254166667    0.0578561458333333)
(2.09484249886999    3.43790254166667    0.0757684375000000)
(2.12586749811665    3.43790254166667    0.0936807291666667)
(2.15689249736331    3.43790254166667    0.111593020833333)
(2.06381749962333    3.29460420833333    0.0578561458333333)
(2.09484249886999    3.29460420833333    0.0757684375000000)
(2.12586749811665    3.29460420833333    0.0936807291666667)
(2.15689249736331    3.29460420833333    0.111593020833333)
(2.06381749962333    3.18713045833333    0.0578561458333333)
(2.09484249886999    3.18713045833333    0.0757684375000000)
(2.12586749811665    3.18713045833333    0.0936807291666667)
(2.15689249736331    3.18713045833333    0.111593020833333)

            // row 7 pressure taps on the top of the panel
(2.34896749962333    3.93944670833333    0.0603671458333333)
(2.37999249886999    3.93944670833333    0.0782794375000000)
(2.41101749811665    3.93944670833333    0.0961917291666667)
(2.44204249736331    3.93944670833333    0.114104020833333)
(2.34896749962333    3.86779754166667    0.0603671458333333)
(2.37999249886999    3.86779754166667    0.0782794375000000)
(2.41101749811665    3.86779754166667    0.0961917291666667)
(2.44204249736331    3.86779754166667    0.114104020833333)
(2.34896749962333    3.76032379166667    0.0603671458333333)
(2.37999249886999    3.76032379166667    0.0782794375000000)
(2.41101749811665    3.76032379166667    0.0961917291666667)
(2.44204249736331    3.76032379166667    0.114104020833333)
(2.34896749962333    3.61702545833333    0.0603671458333333)
(2.37999249886999    3.61702545833333    0.0782794375000000)
(2.41101749811665    3.61702545833333    0.0961917291666667)
(2.44204249736331    3.61702545833333    0.114104020833333)
(2.34896749962333    3.43790254166667    0.0603671458333333)
(2.37999249886999    3.43790254166667    0.0782794375000000)
(2.41101749811665    3.43790254166667    0.0961917291666667)
(2.44204249736331    3.43790254166667    0.114104020833333)
(2.34896749962333    3.29460420833333    0.0603671458333333)
(2.37999249886999    3.29460420833333    0.0782794375000000)
(2.41101749811665    3.29460420833333    0.0961917291666667)
(2.44204249736331    3.29460420833333    0.114104020833333)
(2.34896749962333    3.18713045833333    0.0603671458333333)
(2.37999249886999    3.18713045833333    0.0782794375000000)
(2.41101749811665    3.18713045833333    0.0961917291666667)
(2.44204249736331    3.18713045833333    0.114104020833333)
            // row 7 pressure taps on the bottom of the panel
(2.35041749962333    3.93944670833333    0.0578561458333333)
(2.38144249886999    3.93944670833333    0.0757684375000000)
(2.41246749811665    3.93944670833333    0.0936807291666667)
(2.44349249736331    3.93944670833333    0.111593020833333)
(2.35041749962333    3.86779754166667    0.0578561458333333)
(2.38144249886999    3.86779754166667    0.0757684375000000)
(2.41246749811665    3.86779754166667    0.0936807291666667)
(2.44349249736331    3.86779754166667    0.111593020833333)
(2.35041749962333    3.76032379166667    0.0578561458333333)
(2.38144249886999    3.76032379166667    0.0757684375000000)
(2.41246749811665    3.76032379166667    0.0936807291666667)
(2.44349249736331    3.76032379166667    0.111593020833333)
(2.35041749962333    3.61702545833333    0.0578561458333333)
(2.38144249886999    3.61702545833333    0.0757684375000000)
(2.41246749811665    3.61702545833333    0.0936807291666667)
(2.44349249736331    3.61702545833333    0.111593020833333)
(2.35041749962333    3.43790254166667    0.0578561458333333)
(2.38144249886999    3.43790254166667    0.0757684375000000)
(2.41246749811665    3.43790254166667    0.0936807291666667)
(2.44349249736331    3.43790254166667    0.111593020833333)
(2.35041749962333    3.29460420833333    0.0578561458333333)
(2.38144249886999    3.29460420833333    0.0757684375000000)
(2.41246749811665    3.29460420833333    0.0936807291666667)
(2.44349249736331    3.29460420833333    0.111593020833333)
(2.35041749962333    3.18713045833333    0.0578561458333333)
(2.38144249886999    3.18713045833333    0.0757684375000000)
(2.41246749811665    3.18713045833333    0.0936807291666667)
(2.44349249736331    3.18713045833333    0.111593020833333)
            
        );
}

// ************************************************************************* //
