/*--------------------------------*- C++ -*----------------------------------*\
  =========                 |
  \\      /  F ield         | OpenFOAM: The Open Source CFD Toolbox
   \\    /   O peration     | Website:  https://openfoam.org
    \\  /    A nd           | Version:  9
     \\/     M anipulation  |
\*---------------------------------------------------------------------------*/
FoamFile
{
    format      ascii;
    class       dictionary;
    object      blockMeshDict;
}

// * * * * * * * * * * * * * * * * * * * * * * * * * * * * * * * * * * * * * //

convertToMeters 1;

vertices
(
    (0         0         0)
    (128.63736 0         0)
    (128.63736 22.002588 0)
    (0         22.002588 0)
    (0         0         177.659985)
    (128.63736 0         177.659985)
    (128.63736 22.002588 177.659985)
    (0         22.002588 177.659985)
);

blocks
(
    hex (0 1 2 3 4 5 6 7) (50 10 80) simpleGrading (1 1 1)
);

edges
(
);

boundary
(
    front
    {
        type symmetryPlane;
        faces
        (
            (3 7 6 2)
        );
    }
    back
    {
        type symmetryPlane;
        faces
        (
            (1 5 4 0)
        );
    }
    inlet
    {
        type patch;
        faces
        (
            (0 4 7 3)
        );
    }
    outlet
    {
        type patch;
        faces
        (
            (2 6 5 1)
        );
    }
    lowerWall
    {
        type wall;
        faces
        (
            (0 3 2 1)
        );
    }
    upperWall
    {
        type symmetryPlane;
        faces
        (
            (4 5 6 7)
        );
    }
);

// ************************************************************************* //
