/*--------------------------------*- C++ -*----------------------------------*\
  =========                 |
  \\      /  F ield         | OpenFOAM: The Open Source CFD Toolbox
   \\    /   O peration     | Website:  https://openfoam.org
    \\  /    A nd           | Version:  7
     \\/     M anipulation  |
\*---------------------------------------------------------------------------*/
FoamFile
{
    version     2.0;
    format      ascii;
    class       dictionary;
    location    "constant";
    object      inflowProperties;
}
// * * * * * * * * * * * * * * * * * * * * * * * * * * * * * * * * * * * * * //

Naxis				(0 0 0);
offset				(0 0 0);

UDict
{
	referenceValue		11.7;
	profile			exponential;
	referenceAngl		0;
	referenceDist		0.2;
	alpha			0.2;
}

RDict
{
	referenceValue		(8.5556 0 0 2.5881 0 5.2052);
	profile			exponential;
	referenceAngl		0;
	referenceDist		0.2;
	alpha			(-0.1 -0.1 -0.1);
}

LDict
{
	referenceValue		(0.2 0.1 0.1 0.2 0.1 0.1 0.2 0.1 0.1);
	profile			uniform;
	Gamma			(1 1 1);
}
// ************************************************************************* //
